           6
FINAL HEAT OF FORMATION =      -310.3624900843  time =       0.0000000000
  C    1.3811728400    0.1543209900    0.0000000000
  C    2.7070888400    0.1543209900    0.0000000000
  H    0.7875878400    1.0783589900    0.0000000000
  H    0.7875568400   -0.7696930100   -0.0000220000
  H    3.3006738400   -0.7697170100   -0.0000190000
  H    3.3007048400    1.0783349900    0.0000260000
           6
FINAL HEAT OF FORMATION =      -310.3154686470  time =       1.0000000000
  C    1.3802679134    0.1542302061   -0.0000082984
  C    2.7080885071    0.1542472617    0.0007522148
  H    0.7804003696    1.0828215788   -0.0004202155
  H    0.7815292745   -0.7729035415   -0.0015567087
  H    3.3049568472   -0.7732516203   -0.0024604631
  H    3.3060642775    1.0826498597   -0.0034604726
           6
FINAL HEAT OF FORMATION =      -310.2251573757  time =       2.0000000000
  C    1.3782224677    0.1542712577   -0.0003779233
  C    2.7107149216    0.1537388762    0.0021232065
  H    0.7614055459    1.0923440132   -0.0005975337
  H    0.7678629234   -0.7794939580   -0.0022630969
  H    3.3180179609   -0.7813382141   -0.0076253818
  H    3.3183331588    1.0925153743   -0.0098969021
           6
FINAL HEAT OF FORMATION =      -310.0894904758  time =       3.0000000000
  C    1.3748818928    0.1548397407   -0.0005801221
  C    2.7147472979    0.1537967614    0.0037668078
  H    0.7361321256    1.1013733935   -0.0014486711
  H    0.7491338980   -0.7925648405   -0.0049608684
  H    3.3338919137   -0.7930242398   -0.0140326759
  H    3.3373678952    1.1003310971   -0.0178944667
           6
FINAL HEAT OF FORMATION =      -309.9603601402  time =       4.0000000000
  C    1.3700318094    0.1557576936   -0.0002321239
  C    2.7200185930    0.1546911335    0.0054057926
  H    0.7095439628    1.1059059422   -0.0052851209
  H    0.7304940604   -0.8066216619   -0.0091983305
  H    3.3546855697   -0.8017744885   -0.0221054623
  H    3.3594580233    1.0960972410   -0.0263265301
           6
FINAL HEAT OF FORMATION =      -309.8217367053  time =       5.0000000000
  C    1.3640820353    0.1566121057    0.0003241503
  C    2.7259744147    0.1560827797    0.0072675728
  H    0.6851581972    1.1016661049   -0.0087694568
  H    0.7104270330   -0.8135993876   -0.0157636278
  H    3.3760914158   -0.8051325050   -0.0293873846
  H    3.3830859636    1.0834903300   -0.0367697247
           6
FINAL HEAT OF FORMATION =      -309.6986389454  time =       6.0000000000
  C    1.3571242248    0.1571267142    0.0011009946
  C    2.7329823470    0.1574432809    0.0086039068
  H    0.6599318854    1.0901350678   -0.0127823150
  H    0.6910032343   -0.8106484572   -0.0233013917
  H    3.3944868284   -0.8011451504   -0.0355535733
  H    3.4072466180    1.0656722128   -0.0459721603
           6
FINAL HEAT OF FORMATION =      -309.6104321304  time =       7.0000000000
  C    1.3494525848    0.1575104734    0.0017799542
  C    2.7402881184    0.1587150150    0.0097516759
  H    0.6403917412    1.0699308409   -0.0160272780
  H    0.6778295756   -0.7979601162   -0.0301265883
  H    3.4082224117   -0.7909719093   -0.0402717756
  H    3.4301246914    1.0440785963   -0.0542884091
           6
FINAL HEAT OF FORMATION =      -309.5876951352  time =       8.0000000000
  C    1.3415593426    0.1582357672    0.0023889687
  C    2.7472211441    0.1602786800    0.0105043700
  H    0.6296547534    1.0377890581   -0.0169096570
  H    0.6697838515   -0.7789697697   -0.0371765278
  H    3.4189248937   -0.7796632389   -0.0422062316
  H    3.4505807802    1.0177411339   -0.0619215909
           6
FINAL HEAT OF FORMATION =      -309.5890823184  time =       9.0000000000
  C    1.3350962532    0.1589416299    0.0029350751
  C    2.7522515291    0.1614922426    0.0110520874
  H    0.6261857983    1.0054039610   -0.0167032888
  H    0.6662301496   -0.7602717499   -0.0435969816
  H    3.4252208244   -0.7658777185   -0.0423272791
  H    3.4704429200    0.9947421455   -0.0679540716
           6
FINAL HEAT OF FORMATION =      -309.5805624603  time =      10.0000000000
  C    1.3311115932    0.1594186938    0.0027717574
  C    2.7543653039    0.1623480252    0.0119407091
  H    0.6229579926    0.9804282288   -0.0129319346
  H    0.6640727119   -0.7475434880   -0.0467518733
  H    3.4288339391   -0.7517124999   -0.0423081951
  H    3.4946374920    0.9779192536   -0.0747761333
           6
FINAL HEAT OF FORMATION =      -309.5661238138  time =      11.0000000000
  C    1.3298759766    0.1594038953    0.0020346077
  C    2.7542999404    0.1625547806    0.0124427323
  H    0.6168252541    0.9678187862   -0.0068992182
  H    0.6653732662   -0.7392792786   -0.0471420879
  H    3.4292046831   -0.7421739767   -0.0403882566
  H    3.5147591105    0.9696080002   -0.0798092016
           6
FINAL HEAT OF FORMATION =      -309.5482259615  time =      12.0000000000
  C    1.3316853069    0.1587066483    0.0010733637
  C    2.7521812538    0.1625962662    0.0131591112
  H    0.6065125628    0.9658254545   -0.0038963947
  H    0.6662881059   -0.7321930046   -0.0430166238
  H    3.4298500202   -0.7372762243   -0.0427794657
  H    3.5283992685    0.9665641398   -0.0813206232
           6
FINAL HEAT OF FORMATION =      -309.5415038291  time =      13.0000000000
  C    1.3371602657    0.1575101610    0.0001519382
  C    2.7471086275    0.1627705292    0.0136467652
  H    0.5930975824    0.9767392247   -0.0026330344
  H    0.6671146560   -0.7307597110   -0.0354743206
  H    3.4301068468   -0.7370368973   -0.0468700673
  H    3.5357479357    0.9664818986   -0.0788096978
           6
FINAL HEAT OF FORMATION =      -309.5207600437  time =      14.0000000000
  C    1.3451114613    0.1565201874   -0.0003331408
  C    2.7396751824    0.1630723964    0.0135325870
  H    0.5830223053    0.9962494509   -0.0048032494
  H    0.6695586948   -0.7387146675   -0.0276831431
  H    3.4303855847   -0.7410208094   -0.0516599463
  H    3.5367640208    0.9676655533   -0.0730911465
           6
FINAL HEAT OF FORMATION =      -309.5315329677  time =      15.0000000000
  C    1.3543151182    0.1548075569   -0.0005381797
  C    2.7308436599    0.1638549824    0.0132226307
  H    0.5801946063    1.0240045036   -0.0066700633
  H    0.6716266723   -0.7499680643   -0.0222631086
  H    3.4300034539   -0.7471802636   -0.0547273826
  H    3.5322753631    0.9691686764   -0.0675810672
           6
FINAL HEAT OF FORMATION =      -309.5275636170  time =      16.0000000000
  C    1.3643972739    0.1532716396   -0.0011821275
  C    2.7212064382    0.1646758468    0.0125860100
  H    0.5844347416    1.0492934129   -0.0065150634
  H    0.6754559902   -0.7610924697   -0.0142258504
  H    3.4289531956   -0.7563395975   -0.0555865951
  H    3.5202818521    0.9730977820   -0.0589489537
           6
FINAL HEAT OF FORMATION =      -309.5666552527  time =      17.0000000000
  C    1.3733853454    0.1521292449   -0.0020459082
  C    2.7121783565    0.1650267721    0.0111601799
  H    0.5996948591    1.0697906743   -0.0061306523
  H    0.6838444227   -0.7702794413   -0.0019204853
  H    3.4238556537   -0.7644629263   -0.0555152274
  H    3.5012672606    0.9797281262   -0.0448726778
           6
FINAL HEAT OF FORMATION =      -309.6518369228  time =      18.0000000000
  C    1.3803370458    0.1512637571   -0.0027431118
  C    2.7046128720    0.1646336803    0.0088729747
  H    0.6268392614    1.0786741897   -0.0052475065
  H    0.6984370598   -0.7706156454    0.0110479741
  H    3.4132286369   -0.7688336782   -0.0514743450
  H    3.4761203351    0.9904363140   -0.0267714196
           6
FINAL HEAT OF FORMATION =      -309.7610871748  time =      19.0000000000
  C    1.3836332596    0.1516405109   -0.0031419439
  C    2.6994132233    0.1632587536    0.0058230200
  H    0.6659653577    1.0755082634   -0.0044578070
  H    0.7219121045   -0.7684422038    0.0236193028
  H    3.3982260538   -0.7723739715   -0.0448229431
  H    3.4497043389    1.0064560916   -0.0060982485
           6
FINAL HEAT OF FORMATION =      -309.9073443162  time =      20.0000000000
  C    1.3839080119    0.1526629575   -0.0037734622
  C    2.6970243061    0.1614226566    0.0027850901
  H    0.7118634584    1.0616650713    0.0006366747
  H    0.7470785691   -0.7642430415    0.0342434555
  H    3.3774541382   -0.7692220683   -0.0334642631
  H    3.4255148176    1.0226754246    0.0125448281
