           6
FINAL HEAT OF FORMATION =      -310.3624900843  time =       0.0000000000
  C    1.3811728400    0.1543209900    0.0000000000
  C    2.7070888400    0.1543209900    0.0000000000
  H    0.7875878400    1.0783589900    0.0000000000
  H    0.7875568400   -0.7696930100   -0.0000220000
  H    3.3006738400   -0.7697170100   -0.0000190000
  H    3.3007048400    1.0783349900    0.0000260000
           6
FINAL HEAT OF FORMATION =      -310.3203375353  time =       1.0000000000
  C    1.3779228726    0.1546607809   -0.0000138861
  C    2.7094220130    0.1543686424    0.0001323486
  H    0.7885326109    1.0770597150    0.0005242948
  H    0.7915214261   -0.7703661593   -0.0005953351
  H    3.3023588180   -0.7697361249    0.0000049031
  H    3.3037168068    1.0771343761   -0.0017943657
           6
FINAL HEAT OF FORMATION =      -310.1828681007  time =       2.0000000000
  C    1.3693587409    0.1554795030   -0.0000799013
  C    2.7176540831    0.1541850750   -0.0000597082
  H    0.7832772158    1.0766528632    0.0020718721
  H    0.7931644028   -0.7739581917   -0.0015657349
  H    3.3058141523   -0.7734653323    0.0022413497
  H    3.3077281538    1.0783455723   -0.0018444986
           6
FINAL HEAT OF FORMATION =      -309.9621164250  time =       3.0000000000
  C    1.3561341129    0.1564104409   -0.0000442629
  C    2.7308495945    0.1537224785   -0.0002037943
  H    0.7728983221    1.0803563687    0.0037416028
  H    0.7901939648   -0.7833994776   -0.0037362540
  H    3.3105132117   -0.7755519167    0.0047452536
  H    3.3151154881    1.0809424761   -0.0039726149
           6
FINAL HEAT OF FORMATION =      -309.7477256266  time =       4.0000000000
  C    1.3405878409    0.1571914458    0.0000191142
  C    2.7466264574    0.1534560357    0.0006778665
  H    0.7601205485    1.0860701227    0.0052603508
  H    0.7839462212   -0.7961676596   -0.0081705669
  H    3.3136392338   -0.7805201214    0.0035833243
  H    3.3266197527    1.0869845401   -0.0111007464
           6
FINAL HEAT OF FORMATION =      -309.7136689106  time =       5.0000000000
  C    1.3255585475    0.1575759127   -0.0001095402
  C    2.7615161106    0.1535628682    0.0017022782
  H    0.7468950448    1.0936854137    0.0057420497
  H    0.7779084309   -0.8077020925   -0.0102261970
  H    3.3207765789   -0.7861444268    0.0002956560
  H    3.3408382633    1.0903137155   -0.0167947609
           6
FINAL HEAT OF FORMATION =      -309.6955843374  time =       6.0000000000
  C    1.3157447547    0.1570426114   -0.0000991603
  C    2.7706767886    0.1537950359    0.0022706593
  H    0.7321965250    1.1046247571    0.0033052476
  H    0.7670176559   -0.8152447460   -0.0096456003
  H    3.3354154988   -0.7901597692   -0.0041410703
  H    3.3584805749    1.0930937563   -0.0178627957
           6
FINAL HEAT OF FORMATION =      -309.6474556378  time =       7.0000000000
  C    1.3126595185    0.1565040427    0.0005200849
  C    2.7734547368    0.1540309945    0.0019713198
  H    0.7153653843    1.1099524577   -0.0023605415
  H    0.7519581264   -0.8154534269   -0.0081489209
  H    3.3533025248   -0.7919261825   -0.0072040394
  H    3.3762663605    1.0937634912   -0.0134488950
           6
FINAL HEAT OF FORMATION =      -309.5607333632  time =       8.0000000000
  C    1.3150204021    0.1565478830    0.0011907686
  C    2.7703762838    0.1542615796    0.0016912972
  H    0.6973850184    1.1011398612   -0.0105451773
  H    0.7347515906   -0.8059647694   -0.0060797483
  H    3.3764383018   -0.7913879808   -0.0125328014
  H    3.3968310211    1.0898993026   -0.0084323500
           6
FINAL HEAT OF FORMATION =      -309.4687648585  time =       9.0000000000
  C    1.3236093807    0.1567503647    0.0015027339
  C    2.7609555130    0.1539997785    0.0019014141
  H    0.6806675298    1.0809821762   -0.0174240229
  H    0.7203122083   -0.7848275279   -0.0027545485
  H    3.4004839818   -0.7832130378   -0.0188381646
  H    3.4147473310    1.0808957876   -0.0042596882
           6
FINAL HEAT OF FORMATION =      -309.5427544698  time =      10.0000000000
  C    1.3373323389    0.1567604812    0.0014157329
  C    2.7472468200    0.1536976718    0.0023531954
  H    0.6661404715    1.0556528364   -0.0185591592
  H    0.7048989002   -0.7560937187   -0.0017322637
  H    3.4179918919   -0.7651158840   -0.0218888121
  H    3.4266563840    1.0643728070   -0.0054667923
