           6
FINAL HEAT OF FORMATION =      -310.3624900842  time =       0.0000000000
  C    1.3811728400    0.1543209900    0.0000000000
  C    2.7070888400    0.1543209900    0.0000000000
  H    0.7875878400    1.0783589900    0.0000000000
  H    0.7875568400   -0.7696930100   -0.0000220000
  H    3.3006738400   -0.7697170100   -0.0000190000
  H    3.3007048400    1.0783349900    0.0000260000
